New file
New line.
new line3

credential test
